Version 4
SHEET 1 880 680
WIRE 160 -480 16 -480
WIRE 16 -432 16 -480
WIRE 16 -336 16 -352
WIRE 160 -240 160 -480
WIRE -224 -224 -240 -224
WIRE 128 -224 -224 -224
WIRE -224 -208 -224 -224
WIRE 304 -208 192 -208
WIRE -16 -192 -32 -192
WIRE 128 -192 -16 -192
WIRE -16 -176 -16 -192
WIRE -224 -80 -224 -128
WIRE -16 -80 -16 -96
WIRE 160 -80 160 -176
FLAG 16 -336 0
FLAG 160 -80 0
FLAG 304 -208 OUT
IOPIN 304 -208 Out
FLAG -224 -80 0
FLAG -16 -80 0
FLAG -240 -224 INN
IOPIN -240 -224 In
FLAG -32 -192 INP
IOPIN -32 -192 In
DATAFLAG 256 -208 ""
DATAFLAG -16 -224 ""
DATAFLAG 48 -192 ""
DATAFLAG 96 -480 ""
SYMBOL mysym\\OPA171 160 -208 R0
SYMATTR InstName U1
SYMBOL voltage 16 -448 R0
WINDOW 123 0 0 Left 0
WINDOW 39 0 0 Left 0
SYMATTR InstName VCC
SYMATTR Value 3.3
SYMBOL voltage -16 -192 R0
WINDOW 123 0 0 Left 0
WINDOW 39 0 0 Left 0
SYMATTR InstName Vinp
SYMATTR Value 0
SYMBOL voltage -224 -224 R0
WINDOW 123 0 0 Left 0
WINDOW 39 0 0 Left 0
SYMATTR InstName Vipn
SYMATTR Value 1.1
TEXT -258 -56 Left 2 !;.op
TEXT -258 -24 Left 2 !.dc Vinp 0 3.3 0.1
