Version 4
SHEET 1 880 680
WIRE 176 -480 -112 -480
WIRE 176 -464 176 -480
WIRE 176 -352 176 -384
WIRE 240 -352 176 -352
WIRE -112 -304 -112 -480
WIRE 176 -304 176 -352
WIRE 416 -288 224 -288
WIRE 464 -288 416 -288
WIRE 416 -208 416 -288
WIRE 176 -160 176 -208
WIRE 176 -160 32 -160
WIRE 240 -160 176 -160
WIRE 32 -144 32 -160
WIRE -112 -32 -112 -224
WIRE 32 -32 32 -64
WIRE 32 -32 -112 -32
WIRE 176 -32 32 -32
WIRE 416 -32 416 -128
WIRE 416 -32 176 -32
WIRE 176 16 176 -32
FLAG 176 16 0
FLAG 240 -160 Drain
IOPIN 240 -160 Out
FLAG 464 -288 Gate
IOPIN 464 -288 Out
FLAG 240 -352 Source
IOPIN 240 -352 Out
DATAFLAG 176 -192 ""
DATAFLAG 272 -288 ""
DATAFLAG 176 -320 ""
DATAFLAG 80 -480 ""
DATAFLAG 112 -32 ""
SYMBOL voltage 416 -224 R0
WINDOW 123 0 0 Left 0
WINDOW 39 0 0 Left 0
SYMATTR InstName V1
SYMATTR Value 5
SYMBOL res 160 -480 R0
SYMATTR InstName R1
SYMATTR Value 100k
SYMBOL voltage -112 -320 R0
WINDOW 123 0 0 Left 0
WINDOW 39 0 0 Left 0
SYMATTR InstName V2
SYMATTR Value 5
SYMBOL mysym\\Si2333CDS 224 -208 R180
SYMATTR InstName U2
SYMBOL voltage 32 -160 R0
WINDOW 123 0 0 Left 0
WINDOW 39 0 0 Left 0
SYMATTR InstName V3
SYMATTR Value 1
TEXT -144 40 Left 2 !;.op
TEXT -152 64 Left 2 !.dc V1 5 0
